! BP86 cc-pVDZ
%maxcore 3000
%pal
nprocs 6
end
% OUTPUT
  Print[ P_Overlap ] 1        # overlap matrix
  Print[ P_Iter_F ] 1         # Fock matrix, for every iteration
END
* xyz 0 1 
C	6.374153658823305	4.999998570965608	5.0	
C	5.642174572612445	6.197740126934448	5.0	
C	4.252380712928131	6.198869220307656	5.0	
C	3.546850895803801	5.000002125689736	5.0	
C	4.252381009553405	3.8011274300983344	5.0	
C	5.642175030596046	3.802262278332747	5.0	
C	10.732979688504154	4.999999988546956	5.0	
C	9.99317035017785	6.189848357739921	5.0	
C	8.606836773986773	6.1898293805020685	5.0	
C	7.86701462203204	4.999999819816802	5.0	
C	8.606836711593338	3.810171087712651	5.0	
C	9.99316983545324	3.810151473539261	5.0	
C	15.053154350385547	4.999997017067152	5.0	
C	14.34762942185134	6.198878883210299	5.0	
C	12.957826699962164	6.197724473736466	5.0	
C	12.22583502957754	5.000002289047972	5.0	
C	12.957827418915763	3.8022717936855357	5.0	
C	14.347630064673798	3.801125801062185	5.0	
H	2.461274909665789	4.9999998259974445	5.0	
H	6.15053964265313	7.15490235007625	5.0	
H	3.720174721398346	7.145435022788053	5.0	
H	3.7201750857471425	2.854565787248438	5.0	
H	6.150539778990869	2.8450970864239067	5.0	
H	10.491646096944482	7.152337680097246	5.0	
H	8.10831712417784	7.152278947263131	5.0	
H	8.108317076637897	2.8477209394411886	5.0	
H	10.491646198269791	2.847662210576332	5.0	
H	14.8798796226391	7.145431795006194	5.0	
H	12.449432416512375	7.1548608244581	5.0	
H	12.449432757544542	2.8451400279391232	5.0	
H	14.87988001384685	2.8545671695965877	5.0	
H	16.13871770754117	5.000000215092226	5.0	
*